55

O      -0.312675   0.356710   2.385142
O      -0.117301  -0.379542  -2.327947
O       2.325655  -0.254388   0.502843
O      -2.409786  -0.157704  -0.173515
O       0.421480   2.264676  -0.338914
O       0.184239  -2.462042   0.145927
Hg     -0.019576  -0.072473   0.047532
H      -0.694762  -0.394058   2.888843
H       0.522262   0.620686   2.828815
H       0.722076  -0.416972  -2.831972
H      -0.752009   0.194351  -2.805498
H       2.813376  -0.879805  -0.074626
H       2.848280   0.569713   0.579790
H      -2.889661   0.655107  -0.436363
H      -2.922487  -0.609178   0.529736
H      -0.210307   2.774469  -0.889381
H       0.632232   2.804307   0.453201
H      -0.537600  -2.972792   0.568445
H       0.380234  -2.856278  -0.728353
O       1.938074   1.534599   3.497722
O      -1.693302  -1.725233   3.623082
O      -1.972673   1.359334  -3.511418
O       2.204503  -1.169322  -3.540279
O       3.616457   2.026447   1.383123
O       3.536752  -1.993956  -1.299658
O      -3.673625  -1.715889   1.761267
O      -3.584002   2.022927  -1.389520
O       1.443439   3.634621   1.831110
O      -1.411773   3.546525  -1.997683
O       1.387907  -3.437250  -2.171969
O      -1.780904  -3.668468   1.700754
H       2.207144   1.460735   4.422702
H      -1.784697  -1.749190   4.585201
H      -2.262994   1.216186  -4.422328
H       2.584795  -0.977193  -4.406962
H       4.542718   2.286143   1.296273
H       4.418250  -2.353326  -1.132367
H      -4.633644  -1.826497   1.780958
H      -4.500880   2.315309  -1.304034
H       1.287947   4.556194   2.075028
H      -1.272694   4.456195  -2.293238
H       1.304193  -4.323618  -2.547424
H      -1.795471  -4.625543   1.836187
H       2.749132   1.467147   2.949873
H      -2.580940  -1.533556   3.249041
H      -2.776252   1.353625  -2.947873
H       2.943997  -1.246687  -2.901250
H       3.073556   2.838538   1.312010
H       2.927614  -2.757469  -1.409186
H      -3.281279  -2.589522   1.542883
H      -3.015073   2.821641  -1.387308
H       1.406218   3.099196   2.652537
H      -1.421726   2.974878  -2.796257
H       1.418134  -2.807043  -2.920684
H      -1.532569  -3.255262   2.555982
